contingency/peak_load/60pc/TNB_DUMA_VLN.Txt

SYMMETRICAL COMPONENT VOLTAGES BY BUS (for 3-phase buses)

Bus               Mag:   V1 (kV)    p.u.     V2 (kV)   %V2/V1    V0 (kV)    %V0/V1

ppu_duma_33kv         18.8     0.9869  9.256E-009  4.923E-008 1.239E-009 6.591E-009
ppu_duma_11kv        5.682     0.8947  3.508E-009  6.174E-008 1.496E-009 2.632E-008
rpplngi2             5.753     0.9059  3.529E-009  6.134E-008 1.531E-009 2.661E-008
pdtjlnmasjid         5.807     0.9143  3.545E-009  6.105E-008 1.558E-009 2.683E-008
bella                5.843       0.92  3.556E-009  6.086E-008 1.576E-009 2.697E-008
pstpdgn              5.861     0.9228  3.561E-009  6.076E-008 1.585E-009 2.704E-008
pamdra               5.691     0.8961  3.512E-009  6.171E-008  1.5E-009 2.635E-008
duma4                5.722      0.901  3.523E-009  6.157E-008 1.699E-009 2.968E-008
plsdra               5.789     0.9115  3.548E-009  6.129E-008 2.064E-009 3.566E-008
ssu_uptwres_ir1      5.797     0.9128  3.55E-009  6.124E-008 2.07E-009 3.57E-008
atria_1              5.797     0.9129  3.548E-009  6.121E-008 1.547E-009 2.668E-008
hawker               5.816     0.9158  3.55E-009  6.104E-008 1.586E-009 2.728E-008
prmte                5.728      0.902  3.513E-009  6.132E-008 1.871E-009 3.267E-008
prmta                5.737     0.9034  3.515E-009  6.126E-008 1.877E-009 3.271E-008
pmontb               5.747     0.9049  3.518E-009  6.122E-008 1.929E-009 3.356E-008
duma7                5.711     0.8993  3.574E-009  6.258E-008 1.458E-009 2.554E-008
haus                 5.779     0.9099  3.653E-009  6.321E-008 5.178E-009 8.96E-008
duma6                5.964      0.939  3.957E-009  6.635E-008 2.383E-008 3.997E-007
duma13               6.135      0.966  4.346E-009  7.084E-008 4.407E-008 7.183E-007
ssu_duma5_im2        6.155     0.9692  4.437E-009  7.209E-008 4.431E-008 7.199E-007
plngi_b              5.731     0.9024  3.527E-009  6.153E-008 1.515E-009 2.644E-008
plngi_d              5.758     0.9067  3.537E-009  6.143E-008 1.526E-009 2.649E-008
pdtlitrak            5.886     0.9268  3.58E-009  6.083E-008 1.613E-009 2.74E-008
duma12               5.969     0.9399  3.61E-009  6.047E-008 1.661E-009 2.783E-008
tmngh4               6.051     0.9528  3.643E-009  6.02E-008 2.164E-009 3.577E-008
ssu_tmegah3_ir1      6.084      0.958  3.656E-009  6.01E-008 2.371E-009 3.897E-008
tmngh2               6.097       0.96  3.661E-009  6.005E-008 2.457E-009 4.03E-008
sprk9                 5.83     0.9179  3.547E-009  6.085E-008 1.576E-009 2.704E-008
bomba                5.839     0.9194  3.551E-009  6.081E-008 1.624E-009 2.781E-008
sprk8                5.862     0.9231  3.559E-009  6.071E-008 1.745E-009 2.977E-008
ssu_uptwres_im2       5.71     0.8991  3.519E-009  6.162E-008 1.633E-009 2.86E-008
maybank              5.758     0.9066  3.536E-009  6.141E-008 1.654E-009 2.873E-008
duma8                5.767      0.908  3.54E-009  6.138E-008 1.695E-009 2.939E-008
ssu_dsarcntr_ir1     5.708     0.8988  3.523E-009  6.173E-008 1.501E-009 2.631E-008
duma9                5.816     0.9158  3.552E-009  6.107E-008 1.56E-009 2.682E-008
duma1                5.871     0.9244  3.57E-009  6.08E-008 1.586E-009 2.701E-008
elite                5.891     0.9275  3.576E-009  6.071E-008 1.595E-009 2.708E-008
duma10               5.792      0.912  3.548E-009  6.126E-008 1.542E-009 2.662E-008
balaipolis           5.793     0.9121  3.548E-009  6.125E-008 1.542E-009 2.663E-008
ppu_duma_vcb1            0          0          0          0         0         0
